REMARK  Name = 643976
REMARK  14 active torsions:
REMARK  status: ('A' for Active; 'I' for Inactive)
REMARK    1  A    between atoms: P_1  and  O_5
REMARK    2  A    between atoms: P_1  and  O_8
REMARK    3  A    between atoms: P_1  and  O_9
REMARK    4  A    between atoms: O_2  and  C_15
REMARK    5  A    between atoms: O_3  and  C_16
REMARK    6  A    between atoms: O_4  and  C_18
REMARK    7  A    between atoms: O_5  and  C_22
REMARK    8  A    between atoms: N_11  and  C_17
REMARK    9  A    between atoms: C_15  and  C_16
REMARK   10  A    between atoms: C_15  and  C_17
REMARK   11  A    between atoms: C_16  and  C_18
REMARK   12  A    between atoms: C_18  and  C_22
REMARK   13  A    between atoms: C_25  and  C_29
REMARK   14  A    between atoms: C_27  and  C_30
REMARK                            x       y       z     vdW  Elec       q    Type
REMARK                         _______ _______ _______ _____ _____    ______ ____
ROOT
ATOM      1  O   UNL     1       0.828  -7.966  -5.310  0.00  0.00    -0.265 OA
ATOM      2  O   UNL     1       3.076  -4.110  -5.044  0.00  0.00    -0.245 OA
ATOM      3  N   UNL     1      -1.465  -3.704  -5.870  0.00  0.00    -0.320 N 
ATOM      4  N   UNL     1      -1.549  -6.572  -5.835  0.00  0.00    -0.237 NA
ATOM      5  N   UNL     1       0.853  -3.920  -5.420  0.00  0.00    -0.173 NA
ATOM      6  N   UNL     1       1.965  -6.000  -5.416  0.00  0.00    -0.272 N 
ATOM      7  C   UNL     1      -2.702  -4.383  -6.001  0.00  0.00    +0.069 A 
ATOM      8  C   UNL     1      -0.310  -4.451  -5.645  0.00  0.00    +0.170 A 
ATOM      9  C   UNL     1      -2.709  -5.800  -5.992  0.00  0.00    +0.089 A 
ATOM     10  C   UNL     1      -3.944  -3.739  -6.148  0.00  0.00    +0.031 A 
ATOM     11  C   UNL     1      -0.420  -5.957  -5.667  0.00  0.00    +0.171 A 
ATOM     12  C   UNL     1      -5.161  -4.439  -6.290  0.00  0.00    -0.045 A 
ATOM     13  C   UNL     1      -3.922  -6.498  -6.129  0.00  0.00    +0.033 A 
ATOM     14  C   UNL     1      -5.150  -5.839  -6.287  0.00  0.00    -0.045 A 
ATOM     15  C   UNL     1       0.836  -6.755  -5.462  0.00  0.00    +0.282 A 
ATOM     16  C   UNL     1      -6.434  -3.648  -6.445  0.00  0.00    +0.044 C 
ATOM     17  C   UNL     1      -6.391  -6.674  -6.445  0.00  0.00    +0.044 C 
ATOM     18  C   UNL     1       1.998  -4.644  -5.285  0.00  0.00    +0.351 A 
ATOM     19  H   UNL     1       2.835  -6.478  -5.240  0.00  0.00    +0.174 HD
ENDROOT
BRANCH   3  20
ATOM     20  C   UNL     1      -1.432  -2.235  -5.789  0.00  0.00    +0.158 C 
BRANCH  20  21
ATOM     21  C   UNL     1      -0.325  -1.503  -6.577  0.00  0.00    +0.165 C 
BRANCH  21  22
ATOM     22  O   UNL     1      -0.592  -0.093  -6.389  0.00  0.00    -0.387 OA
ATOM     23  H   UNL     1      -0.060   0.388  -7.061  0.00  0.00    +0.210 HD
ENDBRANCH  21  22
BRANCH  21  24
ATOM     24  C   UNL     1      -0.278  -1.833  -8.093  0.00  0.00    +0.175 C 
BRANCH  24  25
ATOM     25  O   UNL     1      -0.166  -3.236  -8.343  0.00  0.00    -0.387 OA
ATOM     26  H   UNL     1      -0.637  -3.438  -9.171  0.00  0.00    +0.210 HD
ENDBRANCH  24  25
BRANCH  24  27
ATOM     27  C   UNL     1       0.917  -1.115  -8.770  0.00  0.00    +0.172 C 
BRANCH  27  28
ATOM     28  O   UNL     1       0.858   0.296  -8.514  0.00  0.00    -0.387 OA
ATOM     29  H   UNL     1       1.710   0.660  -8.828  0.00  0.00    +0.210 HD
ENDBRANCH  27  28
BRANCH  27  30
ATOM     30  C   UNL     1       0.899  -1.373 -10.276  0.00  0.00    +0.206 C 
BRANCH  30  31
ATOM     31  O   UNL     1       1.987  -0.724 -10.930  0.00  0.00    -0.284 OA
BRANCH  31  32
ATOM     32  P   UNL     1       1.996  -1.035 -12.554  0.00  0.00    +0.472 P 
ATOM     33  O   UNL     1       2.787  -2.361 -12.437  0.00  0.00    -0.228 OA
BRANCH  32  34
ATOM     34  O   UNL     1       3.299  -0.125 -12.927  0.00  0.00    -0.303 OA
ATOM     35  H   UNL     1       4.067  -0.595 -12.539  0.00  0.00    +0.222 HD
ENDBRANCH  32  34
BRANCH  32  36
ATOM     36  O   UNL     1       1.112   0.447 -12.684  0.00  0.00    -0.303 OA
ATOM     37  H   UNL     1       1.811   1.131 -12.646  0.00  0.00    +0.222 HD
ENDBRANCH  32  36
ENDBRANCH  31  32
ENDBRANCH  30  31
ENDBRANCH  27  30
ENDBRANCH  24  27
ENDBRANCH  21  24
ENDBRANCH  20  21
ENDBRANCH   3  20
TORSDOF 12
