MODEL 1
REMARK minimizedAffinity -1.84697473
REMARK CNNscore 0.481943756
REMARK CNNaffinity 5.14352083
REMARK  Name = 643976
REMARK  14 active torsions:
REMARK  status: ('A' for Active; 'I' for Inactive)
REMARK    1  A    between atoms: P_1  and  O_5
REMARK    2  A    between atoms: P_1  and  O_8
REMARK    3  A    between atoms: P_1  and  O_9
REMARK    4  A    between atoms: O_2  and  C_15
REMARK    5  A    between atoms: O_3  and  C_16
REMARK    6  A    between atoms: O_4  and  C_18
REMARK    7  A    between atoms: O_5  and  C_22
REMARK    8  A    between atoms: N_11  and  C_17
REMARK    9  A    between atoms: C_15  and  C_16
REMARK   10  A    between atoms: C_15  and  C_17
REMARK   11  A    between atoms: C_16  and  C_18
REMARK   12  A    between atoms: C_18  and  C_22
REMARK   13  A    between atoms: C_25  and  C_29
REMARK   14  A    between atoms: C_27  and  C_30
REMARK                            x       y       z     vdW  Elec       q    Type
REMARK                         _______ _______ _______ _____ _____    ______ ____
ROOT
ATOM      1  O   UNL     1     -24.112  -9.815  -5.119  0.00  0.00    -0.265 OA
ATOM      2  O   UNL     1     -24.220 -10.488  -9.538  0.00  0.00    -0.245 OA
ATOM      3  N   UNL     1     -24.839  -6.100  -8.186  0.00  0.00    -0.320 N 
ATOM      4  N   UNL     1     -24.608  -7.080  -5.499  0.00  0.00    -0.237 NA
ATOM      5  N   UNL     1     -24.494  -8.344  -8.870  0.00  0.00    -0.173 NA
ATOM      6  N   UNL     1     -24.408 -10.144  -7.349  0.00  0.00    -0.272 N 
ATOM      7  C   UNL     1     -24.861  -5.198  -7.093  0.00  0.00    +0.069 A 
ATOM      8  C   UNL     1     -24.624  -7.454  -7.934  0.00  0.00    +0.170 A 
ATOM      9  C   UNL     1     -24.757  -5.714  -5.777  0.00  0.00    +0.089 A 
ATOM     10  C   UNL     1     -24.987  -3.803  -7.224  0.00  0.00    +0.031 A 
ATOM     11  C   UNL     1     -24.539  -7.906  -6.496  0.00  0.00    +0.171 A 
ATOM     12  C   UNL     1     -25.020  -2.927  -6.118  0.00  0.00    -0.045 A 
ATOM     13  C   UNL     1     -24.785  -4.841  -4.675  0.00  0.00    +0.033 A 
ATOM     14  C   UNL     1     -24.924  -3.453  -4.824  0.00  0.00    -0.045 A 
ATOM     15  C   UNL     1     -24.345  -9.372  -6.232  0.00  0.00    +0.282 A 
ATOM     16  C   UNL     1     -25.162  -1.449  -6.373  0.00  0.00    +0.044 C 
ATOM     17  C   UNL     1     -24.962  -2.604  -3.583  0.00  0.00    +0.044 C 
ATOM     18  C   UNL     1     -24.370  -9.678  -8.629  0.00  0.00    +0.351 A 
ATOM     19  H   UNL     1     -24.245 -11.133  -7.238  0.00  0.00    +0.174 HD
ENDROOT
BRANCH   3  20
ATOM     20  C   UNL     1     -24.858  -5.591  -9.566  0.00  0.00    +0.158 C 
BRANCH  20  21
ATOM     21  C   UNL     1     -25.205  -4.101  -9.771  0.00  0.00    +0.165 C 
BRANCH  21  22
ATOM     22  O   UNL     1     -26.617  -4.078 -10.087  0.00  0.00    -0.387 OA
ATOM     23  H   UNL     1     -26.811  -3.186 -10.452  0.00  0.00    +0.210 HD
ENDBRANCH  21  22
BRANCH  21  24
ATOM     24  C   UNL     1     -24.402  -3.394 -10.895  0.00  0.00    +0.175 C 
BRANCH  24  25
ATOM     25  O   UNL     1     -25.218  -3.057 -12.020  0.00  0.00    -0.387 OA
ATOM     26  H   UNL     1     -24.873  -2.236 -12.413  0.00  0.00    +0.210 HD
ENDBRANCH  24  25
BRANCH  24  27
ATOM     27  C   UNL     1     -23.239  -4.295 -11.383  0.00  0.00    +0.172 C 
BRANCH  27  28
ATOM     28  O   UNL     1     -23.740  -5.578 -11.786  0.00  0.00    -0.387 OA
ATOM     29  H   UNL     1     -22.992  -6.031 -12.223  0.00  0.00    +0.210 HD
ENDBRANCH  27  28
BRANCH  27  30
ATOM     30  C   UNL     1     -22.205  -4.464 -10.270  0.00  0.00    +0.206 C 
BRANCH  30  31
ATOM     31  O   UNL     1     -20.886  -4.188 -10.736  0.00  0.00    -0.284 OA
BRANCH  31  32
ATOM     32  P   UNL     1     -20.884  -3.725 -12.323  0.00  0.00    +0.472 P 
ATOM     33  O   UNL     1     -22.368  -3.281 -12.340  0.00  0.00    -0.228 OA
BRANCH  32  34
ATOM     34  O   UNL     1     -21.170  -5.199 -12.965  0.00  0.00    -0.303 OA
ATOM     35  H   UNL     1     -22.097  -5.413 -12.728  0.00  0.00    +0.222 HD
ENDBRANCH  32  34
BRANCH  32  36
ATOM     36  O   UNL     1     -19.227  -4.221 -12.304  0.00  0.00    -0.303 OA
ATOM     37  H   UNL     1     -19.280  -5.192 -12.418  0.00  0.00    +0.222 HD
ENDBRANCH  32  36
ENDBRANCH  31  32
ENDBRANCH  30  31
ENDBRANCH  27  30
ENDBRANCH  24  27
ENDBRANCH  21  24
ENDBRANCH  20  21
ENDBRANCH   3  20
TORSDOF 12
ENDMDL
MODEL 2
REMARK minimizedAffinity -9.21465969
REMARK CNNscore 0.331863016
REMARK CNNaffinity 6.28591013
REMARK  Name = 643976
REMARK  14 active torsions:
REMARK  status: ('A' for Active; 'I' for Inactive)
REMARK    1  A    between atoms: P_1  and  O_5
REMARK    2  A    between atoms: P_1  and  O_8
REMARK    3  A    between atoms: P_1  and  O_9
REMARK    4  A    between atoms: O_2  and  C_15
REMARK    5  A    between atoms: O_3  and  C_16
REMARK    6  A    between atoms: O_4  and  C_18
REMARK    7  A    between atoms: O_5  and  C_22
REMARK    8  A    between atoms: N_11  and  C_17
REMARK    9  A    between atoms: C_15  and  C_16
REMARK   10  A    between atoms: C_15  and  C_17
REMARK   11  A    between atoms: C_16  and  C_18
REMARK   12  A    between atoms: C_18  and  C_22
REMARK   13  A    between atoms: C_25  and  C_29
REMARK   14  A    between atoms: C_27  and  C_30
REMARK                            x       y       z     vdW  Elec       q    Type
REMARK                         _______ _______ _______ _____ _____    ______ ____
ROOT
ATOM      1  O   UNL     1     -20.715  -1.694 -12.001  0.00  0.00    -0.265 OA
ATOM      2  O   UNL     1     -19.371  -5.813 -10.897  0.00  0.00    -0.245 OA
ATOM      3  N   UNL     1     -21.957  -5.533 -14.731  0.00  0.00    -0.320 N 
ATOM      4  N   UNL     1     -22.096  -2.713 -14.220  0.00  0.00    -0.237 NA
ATOM      5  N   UNL     1     -20.611  -5.664 -12.783  0.00  0.00    -0.173 NA
ATOM      6  N   UNL     1     -20.253  -3.824 -11.352  0.00  0.00    -0.272 N 
ATOM      7  C   UNL     1     -22.613  -4.674 -15.647  0.00  0.00    +0.069 A 
ATOM      8  C   UNL     1     -21.316  -4.974 -13.627  0.00  0.00    +0.170 A 
ATOM      9  C   UNL     1     -22.676  -3.287 -15.360  0.00  0.00    +0.089 A 
ATOM     10  C   UNL     1     -23.223  -5.108 -16.838  0.00  0.00    +0.031 A 
ATOM     11  C   UNL     1     -21.453  -3.487 -13.402  0.00  0.00    +0.171 A 
ATOM     12  C   UNL     1     -23.883  -4.232 -17.727  0.00  0.00    -0.045 A 
ATOM     13  C   UNL     1     -23.329  -2.414 -16.248  0.00  0.00    +0.033 A 
ATOM     14  C   UNL     1     -23.942  -2.867 -17.425  0.00  0.00    -0.045 A 
ATOM     15  C   UNL     1     -20.792  -2.898 -12.188  0.00  0.00    +0.282 A 
ATOM     16  C   UNL     1     -24.506  -4.805 -18.974  0.00  0.00    +0.044 C 
ATOM     17  C   UNL     1     -24.633  -1.858 -18.302  0.00  0.00    +0.044 C 
ATOM     18  C   UNL     1     -20.056  -5.137 -11.658  0.00  0.00    +0.351 A 
ATOM     19  H   UNL     1     -19.761  -3.484 -10.541  0.00  0.00    +0.174 HD
ENDROOT
BRANCH   3  20
ATOM     20  C   UNL     1     -21.799  -6.963 -15.041  0.00  0.00    +0.158 C 
BRANCH  20  21
ATOM     21  C   UNL     1     -20.477  -7.407 -15.701  0.00  0.00    +0.165 C 
BRANCH  21  22
ATOM     22  O   UNL     1     -19.792  -6.180 -16.046  0.00  0.00    -0.387 OA
ATOM     23  H   UNL     1     -19.073  -6.423 -16.671  0.00  0.00    +0.210 HD
ENDBRANCH  21  22
BRANCH  21  24
ATOM     24  C   UNL     1     -20.644  -8.291 -16.966  0.00  0.00    +0.175 C 
BRANCH  24  25
ATOM     25  O   UNL     1     -21.524  -7.705 -17.928  0.00  0.00    -0.387 OA
ATOM     26  H   UNL     1     -21.219  -7.961 -18.817  0.00  0.00    +0.210 HD
ENDBRANCH  24  25
BRANCH  24  27
ATOM     27  C   UNL     1     -21.193  -9.690 -16.584  0.00  0.00    +0.172 C 
BRANCH  27  28
ATOM     28  O   UNL     1     -20.331 -10.316 -15.622  0.00  0.00    -0.387 OA
ATOM     29  H   UNL     1     -20.811 -11.110 -15.312  0.00  0.00    +0.210 HD
ENDBRANCH  27  28
BRANCH  27  30
ATOM     30  C   UNL     1     -21.307 -10.566 -17.831  0.00  0.00    +0.206 C 
BRANCH  30  31
ATOM     31  O   UNL     1     -20.188 -10.390 -18.697  0.00  0.00    -0.284 OA
BRANCH  31  32
ATOM     32  P   UNL     1     -20.078 -11.611 -19.807  0.00  0.00    +0.472 P 
ATOM     33  O   UNL     1     -21.101 -12.534 -19.100  0.00  0.00    -0.228 OA
BRANCH  32  34
ATOM     34  O   UNL     1     -18.764 -12.343 -19.173  0.00  0.00    -0.303 OA
ATOM     35  H   UNL     1     -19.068 -12.745 -18.332  0.00  0.00    +0.222 HD
ENDBRANCH  32  34
BRANCH  32  36
ATOM     36  O   UNL     1     -18.935 -10.579 -20.596  0.00  0.00    -0.303 OA
ATOM     37  H   UNL     1     -18.107 -10.737 -20.099  0.00  0.00    +0.222 HD
ENDBRANCH  32  36
ENDBRANCH  31  32
ENDBRANCH  30  31
ENDBRANCH  27  30
ENDBRANCH  24  27
ENDBRANCH  21  24
ENDBRANCH  20  21
ENDBRANCH   3  20
TORSDOF 12
ENDMDL
MODEL 3
REMARK minimizedAffinity -8.79396057
REMARK CNNscore 0.298994869
REMARK CNNaffinity 6.19794083
REMARK  Name = 643976
REMARK  14 active torsions:
REMARK  status: ('A' for Active; 'I' for Inactive)
REMARK    1  A    between atoms: P_1  and  O_5
REMARK    2  A    between atoms: P_1  and  O_8
REMARK    3  A    between atoms: P_1  and  O_9
REMARK    4  A    between atoms: O_2  and  C_15
REMARK    5  A    between atoms: O_3  and  C_16
REMARK    6  A    between atoms: O_4  and  C_18
REMARK    7  A    between atoms: O_5  and  C_22
REMARK    8  A    between atoms: N_11  and  C_17
REMARK    9  A    between atoms: C_15  and  C_16
REMARK   10  A    between atoms: C_15  and  C_17
REMARK   11  A    between atoms: C_16  and  C_18
REMARK   12  A    between atoms: C_18  and  C_22
REMARK   13  A    between atoms: C_25  and  C_29
REMARK   14  A    between atoms: C_27  and  C_30
REMARK                            x       y       z     vdW  Elec       q    Type
REMARK                         _______ _______ _______ _____ _____    ______ ____
ROOT
ATOM      1  O   UNL     1     -21.030  -6.024  -8.888  0.00  0.00    -0.265 OA
ATOM      2  O   UNL     1     -18.855  -3.939 -12.192  0.00  0.00    -0.245 OA
ATOM      3  N   UNL     1     -21.953  -7.107 -13.548  0.00  0.00    -0.320 N 
ATOM      4  N   UNL     1     -22.435  -7.573 -10.758  0.00  0.00    -0.237 NA
ATOM      5  N   UNL     1     -20.389  -5.468 -12.846  0.00  0.00    -0.173 NA
ATOM      6  N   UNL     1     -19.787  -5.162 -10.586  0.00  0.00    -0.272 N 
ATOM      7  C   UNL     1     -22.960  -8.017 -13.140  0.00  0.00    +0.069 A 
ATOM      8  C   UNL     1     -21.262  -6.389 -12.572  0.00  0.00    +0.170 A 
ATOM      9  C   UNL     1     -23.166  -8.234 -11.755  0.00  0.00    +0.089 A 
ATOM     10  C   UNL     1     -23.780  -8.736 -14.028  0.00  0.00    +0.031 A 
ATOM     11  C   UNL     1     -21.544  -6.704 -11.123  0.00  0.00    +0.171 A 
ATOM     12  C   UNL     1     -24.768  -9.647 -13.597  0.00  0.00    -0.045 A 
ATOM     13  C   UNL     1     -24.153  -9.138 -11.324  0.00  0.00    +0.033 A 
ATOM     14  C   UNL     1     -24.953  -9.856 -12.225  0.00  0.00    -0.045 A 
ATOM     15  C   UNL     1     -20.768  -5.954 -10.078  0.00  0.00    +0.282 A 
ATOM     16  C   UNL     1     -25.587 -10.367 -14.635  0.00  0.00    +0.044 C 
ATOM     17  C   UNL     1     -25.969 -10.814 -11.667  0.00  0.00    +0.044 C 
ATOM     18  C   UNL     1     -19.651  -4.826 -11.899  0.00  0.00    +0.351 A 
ATOM     19  H   UNL     1     -19.259  -4.603  -9.934  0.00  0.00    +0.174 HD
ENDROOT
BRANCH   3  20
ATOM     20  C   UNL     1     -21.771  -6.794 -14.974  0.00  0.00    +0.158 C 
BRANCH  20  21
ATOM     21  C   UNL     1     -20.509  -7.345 -15.669  0.00  0.00    +0.165 C 
BRANCH  21  22
ATOM     22  O   UNL     1     -19.721  -6.180 -16.011  0.00  0.00    -0.387 OA
ATOM     23  H   UNL     1     -19.041  -6.476 -16.655  0.00  0.00    +0.210 HD
ENDBRANCH  21  22
BRANCH  21  24
ATOM     24  C   UNL     1     -20.783  -8.188 -16.944  0.00  0.00    +0.175 C 
BRANCH  24  25
ATOM     25  O   UNL     1     -21.737  -7.571 -17.811  0.00  0.00    -0.387 OA
ATOM     26  H   UNL     1     -21.507  -7.799 -18.730  0.00  0.00    +0.210 HD
ENDBRANCH  24  25
BRANCH  24  27
ATOM     27  C   UNL     1     -21.302  -9.598 -16.563  0.00  0.00    +0.172 C 
BRANCH  27  28
ATOM     28  O   UNL     1     -20.397 -10.230 -15.646  0.00  0.00    -0.387 OA
ATOM     29  H   UNL     1     -20.856 -11.034 -15.330  0.00  0.00    +0.210 HD
ENDBRANCH  27  28
BRANCH  27  30
ATOM     30  C   UNL     1     -21.457 -10.456 -17.818  0.00  0.00    +0.206 C 
BRANCH  30  31
ATOM     31  O   UNL     1     -20.308 -11.270 -18.039  0.00  0.00    -0.284 OA
BRANCH  31  32
ATOM     32  P   UNL     1     -20.172 -11.717 -19.625  0.00  0.00    +0.472 P 
ATOM     33  O   UNL     1     -20.900 -13.073 -19.450  0.00  0.00    -0.228 OA
BRANCH  32  34
ATOM     34  O   UNL     1     -18.670 -12.349 -19.529  0.00  0.00    -0.303 OA
ATOM     35  H   UNL     1     -18.765 -13.172 -19.005  0.00  0.00    +0.222 HD
ENDBRANCH  32  34
BRANCH  32  36
ATOM     36  O   UNL     1     -19.359 -10.202 -19.819  0.00  0.00    -0.303 OA
ATOM     37  H   UNL     1     -18.448 -10.395 -19.518  0.00  0.00    +0.222 HD
ENDBRANCH  32  36
ENDBRANCH  31  32
ENDBRANCH  30  31
ENDBRANCH  27  30
ENDBRANCH  24  27
ENDBRANCH  21  24
ENDBRANCH  20  21
ENDBRANCH   3  20
TORSDOF 12
ENDMDL
MODEL 4
REMARK minimizedAffinity -6.0275526
REMARK CNNscore 0.264202476
REMARK CNNaffinity 6.095222
REMARK  Name = 643976
REMARK  14 active torsions:
REMARK  status: ('A' for Active; 'I' for Inactive)
REMARK    1  A    between atoms: P_1  and  O_5
REMARK    2  A    between atoms: P_1  and  O_8
REMARK    3  A    between atoms: P_1  and  O_9
REMARK    4  A    between atoms: O_2  and  C_15
REMARK    5  A    between atoms: O_3  and  C_16
REMARK    6  A    between atoms: O_4  and  C_18
REMARK    7  A    between atoms: O_5  and  C_22
REMARK    8  A    between atoms: N_11  and  C_17
REMARK    9  A    between atoms: C_15  and  C_16
REMARK   10  A    between atoms: C_15  and  C_17
REMARK   11  A    between atoms: C_16  and  C_18
REMARK   12  A    between atoms: C_18  and  C_22
REMARK   13  A    between atoms: C_25  and  C_29
REMARK   14  A    between atoms: C_27  and  C_30
REMARK                            x       y       z     vdW  Elec       q    Type
REMARK                         _______ _______ _______ _____ _____    ______ ____
ROOT
ATOM      1  O   UNL     1     -20.288  -3.096 -12.827  0.00  0.00    -0.265 OA
ATOM      2  O   UNL     1     -16.717  -0.932 -11.228  0.00  0.00    -0.245 OA
ATOM      3  N   UNL     1     -19.366  -3.008  -8.043  0.00  0.00    -0.320 N 
ATOM      4  N   UNL     1     -21.049  -3.813 -10.224  0.00  0.00    -0.237 NA
ATOM      5  N   UNL     1     -18.001  -1.972  -9.682  0.00  0.00    -0.173 NA
ATOM      6  N   UNL     1     -18.624  -1.818 -11.952  0.00  0.00    -0.272 N 
ATOM      7  C   UNL     1     -20.486  -3.844  -7.809  0.00  0.00    +0.069 A 
ATOM      8  C   UNL     1     -19.056  -2.654  -9.355  0.00  0.00    +0.170 A 
ATOM      9  C   UNL     1     -21.305  -4.214  -8.905  0.00  0.00    +0.089 A 
ATOM     10  C   UNL     1     -20.853  -4.335  -6.543  0.00  0.00    +0.031 A 
ATOM     11  C   UNL     1     -19.999  -3.088 -10.452  0.00  0.00    +0.171 A 
ATOM     12  C   UNL     1     -21.982  -5.156  -6.334  0.00  0.00    -0.045 A 
ATOM     13  C   UNL     1     -22.427  -5.036  -8.697  0.00  0.00    +0.033 A 
ATOM     14  C   UNL     1     -22.785  -5.507  -7.425  0.00  0.00    -0.045 A 
ATOM     15  C   UNL     1     -19.678  -2.670 -11.859  0.00  0.00    +0.282 A 
ATOM     16  C   UNL     1     -22.284  -5.623  -4.934  0.00  0.00    +0.044 C 
ATOM     17  C   UNL     1     -24.014  -6.364  -7.303  0.00  0.00    +0.044 C 
ATOM     18  C   UNL     1     -17.739  -1.551 -10.950  0.00  0.00    +0.351 A 
ATOM     19  H   UNL     1     -18.337  -1.535 -12.876  0.00  0.00    +0.174 HD
ENDROOT
BRANCH   3  20
ATOM     20  C   UNL     1     -18.448  -2.675  -6.943  0.00  0.00    +0.158 C 
BRANCH  20  21
ATOM     21  C   UNL     1     -17.202  -3.568  -6.761  0.00  0.00    +0.165 C 
BRANCH  21  22
ATOM     22  O   UNL     1     -17.716  -4.865  -6.374  0.00  0.00    -0.387 OA
ATOM     23  H   UNL     1     -16.954  -5.378  -6.023  0.00  0.00    +0.210 HD
ENDBRANCH  21  22
BRANCH  21  24
ATOM     24  C   UNL     1     -16.189  -3.064  -5.698  0.00  0.00    +0.175 C 
BRANCH  24  25
ATOM     25  O   UNL     1     -16.386  -1.687  -5.366  0.00  0.00    -0.387 OA
ATOM     26  H   UNL     1     -16.148  -1.561  -4.430  0.00  0.00    +0.210 HD
ENDBRANCH  24  25
BRANCH  24  27
ATOM     27  C   UNL     1     -14.735  -3.246  -6.201  0.00  0.00    +0.172 C 
BRANCH  27  28
ATOM     28  O   UNL     1     -13.987  -4.050  -5.277  0.00  0.00    -0.387 OA
ATOM     29  H   UNL     1     -13.142  -4.255  -5.725  0.00  0.00    +0.210 HD
ENDBRANCH  27  28
BRANCH  27  30
ATOM     30  C   UNL     1     -14.064  -1.884  -6.370  0.00  0.00    +0.206 C 
BRANCH  30  31
ATOM     31  O   UNL     1     -14.642  -1.147  -7.445  0.00  0.00    -0.284 OA
BRANCH  31  32
ATOM     32  P   UNL     1     -13.485  -0.496  -8.431  0.00  0.00    +0.472 P 
ATOM     33  O   UNL     1     -14.045  -1.122  -9.732  0.00  0.00    -0.228 OA
BRANCH  32  34
ATOM     34  O   UNL     1     -12.350  -1.646  -8.197  0.00  0.00    -0.303 OA
ATOM     35  H   UNL     1     -12.693  -2.448  -8.645  0.00  0.00    +0.222 HD
ENDBRANCH  32  34
BRANCH  32  36
ATOM     36  O   UNL     1     -12.861   0.203  -6.976  0.00  0.00    -0.303 OA
ATOM     37  H   UNL     1     -12.344  -0.527  -6.579  0.00  0.00    +0.222 HD
ENDBRANCH  32  36
ENDBRANCH  31  32
ENDBRANCH  30  31
ENDBRANCH  27  30
ENDBRANCH  24  27
ENDBRANCH  21  24
ENDBRANCH  20  21
ENDBRANCH   3  20
TORSDOF 12
ENDMDL
MODEL 5
REMARK minimizedAffinity -9.84851933
REMARK CNNscore 0.261443824
REMARK CNNaffinity 8.58441257
REMARK  Name = 643976
REMARK  14 active torsions:
REMARK  status: ('A' for Active; 'I' for Inactive)
REMARK    1  A    between atoms: P_1  and  O_5
REMARK    2  A    between atoms: P_1  and  O_8
REMARK    3  A    between atoms: P_1  and  O_9
REMARK    4  A    between atoms: O_2  and  C_15
REMARK    5  A    between atoms: O_3  and  C_16
REMARK    6  A    between atoms: O_4  and  C_18
REMARK    7  A    between atoms: O_5  and  C_22
REMARK    8  A    between atoms: N_11  and  C_17
REMARK    9  A    between atoms: C_15  and  C_16
REMARK   10  A    between atoms: C_15  and  C_17
REMARK   11  A    between atoms: C_16  and  C_18
REMARK   12  A    between atoms: C_18  and  C_22
REMARK   13  A    between atoms: C_25  and  C_29
REMARK   14  A    between atoms: C_27  and  C_30
REMARK                            x       y       z     vdW  Elec       q    Type
REMARK                         _______ _______ _______ _____ _____    ______ ____
ROOT
ATOM      1  O   UNL     1      -6.681 -13.211 -17.905  0.00  0.00    -0.265 OA
ATOM      2  O   UNL     1      -7.040 -13.041 -13.451  0.00  0.00    -0.245 OA
ATOM      3  N   UNL     1      -8.331  -9.196 -15.692  0.00  0.00    -0.320 N 
ATOM      4  N   UNL     1      -7.603 -10.569 -18.105  0.00  0.00    -0.237 NA
ATOM      5  N   UNL     1      -7.694 -11.177 -14.555  0.00  0.00    -0.173 NA
ATOM      6  N   UNL     1      -6.659 -12.997 -15.641  0.00  0.00    -0.272 N 
ATOM      7  C   UNL     1      -8.545  -8.586 -16.953  0.00  0.00    +0.069 A 
ATOM      8  C   UNL     1      -7.837 -10.499 -15.653  0.00  0.00    +0.170 A 
ATOM      9  C   UNL     1      -8.164  -9.285 -18.126  0.00  0.00    +0.089 A 
ATOM     10  C   UNL     1      -9.114  -7.311 -17.126  0.00  0.00    +0.031 A 
ATOM     11  C   UNL     1      -7.448 -11.153 -16.957  0.00  0.00    +0.171 A 
ATOM     12  C   UNL     1      -9.305  -6.720 -18.393  0.00  0.00    -0.045 A 
ATOM     13  C   UNL     1      -8.358  -8.698 -19.389  0.00  0.00    +0.033 A 
ATOM     14  C   UNL     1      -8.916  -7.420 -19.541  0.00  0.00    -0.045 A 
ATOM     15  C   UNL     1      -6.881 -12.543 -16.903  0.00  0.00    +0.282 A 
ATOM     16  C   UNL     1      -9.921  -5.346 -18.462  0.00  0.00    +0.044 C 
ATOM     17  C   UNL     1      -9.066  -6.870 -20.933  0.00  0.00    +0.044 C 
ATOM     18  C   UNL     1      -7.133 -12.417 -14.503  0.00  0.00    +0.351 A 
ATOM     19  H   UNL     1      -6.316 -13.940 -15.542  0.00  0.00    +0.174 HD
ENDROOT
BRANCH   3  20
ATOM     20  C   UNL     1      -8.794  -8.535 -14.462  0.00  0.00    +0.158 C 
BRANCH  20  21
ATOM     21  C   UNL     1     -10.010  -9.151 -13.737  0.00  0.00    +0.165 C 
BRANCH  21  22
ATOM     22  O   UNL     1     -10.946  -8.060 -13.570  0.00  0.00    -0.387 OA
ATOM     23  H   UNL     1     -11.613  -8.357 -12.912  0.00  0.00    +0.210 HD
ENDBRANCH  21  22
BRANCH  21  24
ATOM     24  C   UNL     1      -9.692  -9.788 -12.358  0.00  0.00    +0.175 C 
BRANCH  24  25
ATOM     25  O   UNL     1      -8.328  -9.601 -11.972  0.00  0.00    -0.387 OA
ATOM     26  H   UNL     1      -8.293  -9.524 -11.002  0.00  0.00    +0.210 HD
ENDBRANCH  24  25
BRANCH  24  27
ATOM     27  C   UNL     1      -9.995 -11.308 -12.377  0.00  0.00    +0.172 C 
BRANCH  27  28
ATOM     28  O   UNL     1     -10.744 -11.650 -13.553  0.00  0.00    -0.387 OA
ATOM     29  H   UNL     1     -10.763 -12.627 -13.582  0.00  0.00    +0.210 HD
ENDBRANCH  27  28
BRANCH  27  30
ATOM     30  C   UNL     1     -10.779 -11.702 -11.126  0.00  0.00    +0.206 C 
BRANCH  30  31
ATOM     31  O   UNL     1     -12.182 -11.725 -11.375  0.00  0.00    -0.284 OA
BRANCH  31  32
ATOM     32  P   UNL     1     -12.853 -13.177 -10.955  0.00  0.00    +0.472 P 
ATOM     33  O   UNL     1     -11.999 -14.014 -11.940  0.00  0.00    -0.228 OA
BRANCH  32  34
ATOM     34  O   UNL     1     -14.155 -13.090 -11.935  0.00  0.00    -0.303 OA
ATOM     35  H   UNL     1     -13.805 -13.186 -12.846  0.00  0.00    +0.222 HD
ENDBRANCH  32  34
BRANCH  32  36
ATOM     36  O   UNL     1     -13.806 -12.242  -9.855  0.00  0.00    -0.303 OA
ATOM     37  H   UNL     1     -14.523 -11.890 -10.420  0.00  0.00    +0.222 HD
ENDBRANCH  32  36
ENDBRANCH  31  32
ENDBRANCH  30  31
ENDBRANCH  27  30
ENDBRANCH  24  27
ENDBRANCH  21  24
ENDBRANCH  20  21
ENDBRANCH   3  20
TORSDOF 12
ENDMDL
MODEL 6
REMARK minimizedAffinity -7.62771273
REMARK CNNscore 0.251828015
REMARK CNNaffinity 5.97667217
REMARK  Name = 643976
REMARK  14 active torsions:
REMARK  status: ('A' for Active; 'I' for Inactive)
REMARK    1  A    between atoms: P_1  and  O_5
REMARK    2  A    between atoms: P_1  and  O_8
REMARK    3  A    between atoms: P_1  and  O_9
REMARK    4  A    between atoms: O_2  and  C_15
REMARK    5  A    between atoms: O_3  and  C_16
REMARK    6  A    between atoms: O_4  and  C_18
REMARK    7  A    between atoms: O_5  and  C_22
REMARK    8  A    between atoms: N_11  and  C_17
REMARK    9  A    between atoms: C_15  and  C_16
REMARK   10  A    between atoms: C_15  and  C_17
REMARK   11  A    between atoms: C_16  and  C_18
REMARK   12  A    between atoms: C_18  and  C_22
REMARK   13  A    between atoms: C_25  and  C_29
REMARK   14  A    between atoms: C_27  and  C_30
REMARK                            x       y       z     vdW  Elec       q    Type
REMARK                         _______ _______ _______ _____ _____    ______ ____
ROOT
ATOM      1  O   UNL     1     -24.996  -2.093 -16.472  0.00  0.00    -0.265 OA
ATOM      2  O   UNL     1     -24.942  -6.111 -18.433  0.00  0.00    -0.245 OA
ATOM      3  N   UNL     1     -22.057  -5.621 -14.840  0.00  0.00    -0.320 N 
ATOM      4  N   UNL     1     -23.012  -2.920 -14.669  0.00  0.00    -0.237 NA
ATOM      5  N   UNL     1     -23.556  -5.872 -16.660  0.00  0.00    -0.173 NA
ATOM      6  N   UNL     1     -24.765  -4.066 -17.578  0.00  0.00    -0.272 N 
ATOM      7  C   UNL     1     -21.615  -4.773 -13.795  0.00  0.00    +0.069 A 
ATOM      8  C   UNL     1     -23.020  -5.144 -15.729  0.00  0.00    +0.170 A 
ATOM      9  C   UNL     1     -22.095  -3.441 -13.744  0.00  0.00    +0.089 A 
ATOM     10  C   UNL     1     -20.711  -5.165 -12.790  0.00  0.00    +0.031 A 
ATOM     11  C   UNL     1     -23.458  -3.705 -15.600  0.00  0.00    +0.171 A 
ATOM     12  C   UNL     1     -20.276  -4.296 -11.767  0.00  0.00    -0.045 A 
ATOM     13  C   UNL     1     -21.664  -2.576 -12.722  0.00  0.00    +0.033 A 
ATOM     14  C   UNL     1     -20.754  -2.981 -11.735  0.00  0.00    -0.045 A 
ATOM     15  C   UNL     1     -24.467  -3.188 -16.585  0.00  0.00    +0.282 A 
ATOM     16  C   UNL     1     -19.302  -4.820 -10.742  0.00  0.00    +0.044 C 
ATOM     17  C   UNL     1     -20.339  -1.977 -10.695  0.00  0.00    +0.044 C 
ATOM     18  C   UNL     1     -24.432  -5.388 -17.583  0.00  0.00    +0.351 A 
ATOM     19  H   UNL     1     -25.467  -3.789 -18.247  0.00  0.00    +0.174 HD
ENDROOT
BRANCH   3  20
ATOM     20  C   UNL     1     -21.646  -7.033 -14.872  0.00  0.00    +0.158 C 
BRANCH  20  21
ATOM     21  C   UNL     1     -20.404  -7.394 -15.716  0.00  0.00    +0.165 C 
BRANCH  21  22
ATOM     22  O   UNL     1     -19.791  -6.127 -16.054  0.00  0.00    -0.387 OA
ATOM     23  H   UNL     1     -19.150  -6.306 -16.776  0.00  0.00    +0.210 HD
ENDBRANCH  21  22
BRANCH  21  24
ATOM     24  C   UNL     1     -20.707  -8.195 -17.011  0.00  0.00    +0.175 C 
BRANCH  24  25
ATOM     25  O   UNL     1     -21.672  -7.544 -17.842  0.00  0.00    -0.387 OA
ATOM     26  H   UNL     1     -21.460  -7.745 -18.771  0.00  0.00    +0.210 HD
ENDBRANCH  24  25
BRANCH  24  27
ATOM     27  C   UNL     1     -21.231  -9.612 -16.665  0.00  0.00    +0.172 C 
BRANCH  27  28
ATOM     28  O   UNL     1     -20.285 -10.302 -15.836  0.00  0.00    -0.387 OA
ATOM     29  H   UNL     1     -20.740 -11.112 -15.529  0.00  0.00    +0.210 HD
ENDBRANCH  27  28
BRANCH  27  30
ATOM     30  C   UNL     1     -21.478 -10.406 -17.947  0.00  0.00    +0.206 C 
BRANCH  30  31
ATOM     31  O   UNL     1     -20.545 -11.475 -18.086  0.00  0.00    -0.284 OA
BRANCH  31  32
ATOM     32  P   UNL     1     -20.391 -11.949 -19.663  0.00  0.00    +0.472 P 
ATOM     33  O   UNL     1     -21.847 -11.598 -20.056  0.00  0.00    -0.228 OA
BRANCH  32  34
ATOM     34  O   UNL     1     -20.687 -13.537 -19.427  0.00  0.00    -0.303 OA
ATOM     35  H   UNL     1     -21.639 -13.595 -19.200  0.00  0.00    +0.222 HD
ENDBRANCH  32  34
BRANCH  32  36
ATOM     36  O   UNL     1     -18.764 -12.341 -19.223  0.00  0.00    -0.303 OA
ATOM     37  H   UNL     1     -18.850 -13.218 -18.798  0.00  0.00    +0.222 HD
ENDBRANCH  32  36
ENDBRANCH  31  32
ENDBRANCH  30  31
ENDBRANCH  27  30
ENDBRANCH  24  27
ENDBRANCH  21  24
ENDBRANCH  20  21
ENDBRANCH   3  20
TORSDOF 12
ENDMDL
MODEL 7
REMARK minimizedAffinity -9.52096748
REMARK CNNscore 0.24960807
REMARK CNNaffinity 8.44366932
REMARK  Name = 643976
REMARK  14 active torsions:
REMARK  status: ('A' for Active; 'I' for Inactive)
REMARK    1  A    between atoms: P_1  and  O_5
REMARK    2  A    between atoms: P_1  and  O_8
REMARK    3  A    between atoms: P_1  and  O_9
REMARK    4  A    between atoms: O_2  and  C_15
REMARK    5  A    between atoms: O_3  and  C_16
REMARK    6  A    between atoms: O_4  and  C_18
REMARK    7  A    between atoms: O_5  and  C_22
REMARK    8  A    between atoms: N_11  and  C_17
REMARK    9  A    between atoms: C_15  and  C_16
REMARK   10  A    between atoms: C_15  and  C_17
REMARK   11  A    between atoms: C_16  and  C_18
REMARK   12  A    between atoms: C_18  and  C_22
REMARK   13  A    between atoms: C_25  and  C_29
REMARK   14  A    between atoms: C_27  and  C_30
REMARK                            x       y       z     vdW  Elec       q    Type
REMARK                         _______ _______ _______ _____ _____    ______ ____
ROOT
ATOM      1  O   UNL     1     -10.725 -15.520 -11.777  0.00  0.00    -0.265 OA
ATOM      2  O   UNL     1     -11.939 -12.114  -9.147  0.00  0.00    -0.245 OA
ATOM      3  N   UNL     1      -9.276 -10.974 -12.764  0.00  0.00    -0.320 N 
ATOM      4  N   UNL     1      -9.255 -13.771 -13.404  0.00  0.00    -0.237 NA
ATOM      5  N   UNL     1     -10.661 -11.562 -10.931  0.00  0.00    -0.173 NA
ATOM      6  N   UNL     1     -11.121 -13.800 -10.344  0.00  0.00    -0.272 N 
ATOM      7  C   UNL     1      -8.631 -11.432 -13.940  0.00  0.00    +0.069 A 
ATOM      8  C   UNL     1      -9.963 -11.895 -11.974  0.00  0.00    +0.170 A 
ATOM      9  C   UNL     1      -8.628 -12.821 -14.222  0.00  0.00    +0.089 A 
ATOM     10  C   UNL     1      -7.978 -10.591 -14.859  0.00  0.00    +0.031 A 
ATOM     11  C   UNL     1      -9.887 -13.355 -12.352  0.00  0.00    +0.171 A 
ATOM     12  C   UNL     1      -7.331 -11.074 -16.017  0.00  0.00    -0.045 A 
ATOM     13  C   UNL     1      -7.987 -13.301 -15.378  0.00  0.00    +0.033 A 
ATOM     14  C   UNL     1      -7.330 -12.449 -16.278  0.00  0.00    -0.045 A 
ATOM     15  C   UNL     1     -10.598 -14.345 -11.474  0.00  0.00    +0.282 A 
ATOM     16  C   UNL     1      -6.658 -10.084 -16.932  0.00  0.00    +0.044 C 
ATOM     17  C   UNL     1      -6.658 -13.061 -17.476  0.00  0.00    +0.044 C 
ATOM     18  C   UNL     1     -11.262 -12.465 -10.108  0.00  0.00    +0.351 A 
ATOM     19  H   UNL     1     -11.645 -14.410  -9.735  0.00  0.00    +0.174 HD
ENDROOT
BRANCH   3  20
ATOM     20  C   UNL     1      -9.373  -9.533 -12.486  0.00  0.00    +0.158 C 
BRANCH  20  21
ATOM     21  C   UNL     1      -9.999  -8.637 -13.576  0.00  0.00    +0.165 C 
BRANCH  21  22
ATOM     22  O   UNL     1     -11.164  -9.360 -14.040  0.00  0.00    -0.387 OA
ATOM     23  H   UNL     1     -11.441  -8.938 -14.883  0.00  0.00    +0.210 HD
ENDBRANCH  21  22
BRANCH  21  24
ATOM     24  C   UNL     1      -9.064  -8.320 -14.774  0.00  0.00    +0.175 C 
BRANCH  24  25
ATOM     25  O   UNL     1      -8.146  -7.263 -14.484  0.00  0.00    -0.387 OA
ATOM     26  H   UNL     1      -7.319  -7.434 -14.969  0.00  0.00    +0.210 HD
ENDBRANCH  24  25
BRANCH  24  27
ATOM     27  C   UNL     1      -9.893  -7.923 -16.022  0.00  0.00    +0.172 C 
BRANCH  27  28
ATOM     28  O   UNL     1     -10.524  -9.082 -16.587  0.00  0.00    -0.387 OA
ATOM     29  H   UNL     1     -11.147  -8.744 -17.262  0.00  0.00    +0.210 HD
ENDBRANCH  27  28
BRANCH  27  30
ATOM     30  C   UNL     1      -8.991  -7.261 -17.062  0.00  0.00    +0.206 C 
BRANCH  30  31
ATOM     31  O   UNL     1      -9.709  -6.312 -17.847  0.00  0.00    -0.284 OA
BRANCH  31  32
ATOM     32  P   UNL     1      -9.568  -6.627 -19.464  0.00  0.00    +0.472 P 
ATOM     33  O   UNL     1     -10.938  -6.014 -19.845  0.00  0.00    -0.228 OA
BRANCH  32  34
ATOM     34  O   UNL     1     -10.108  -8.166 -19.419  0.00  0.00    -0.303 OA
ATOM     35  H   UNL     1     -11.066  -8.102 -19.220  0.00  0.00    +0.222 HD
ENDBRANCH  32  34
BRANCH  32  36
ATOM     36  O   UNL     1      -8.037  -7.311 -19.038  0.00  0.00    -0.303 OA
ATOM     37  H   UNL     1      -8.270  -8.206 -18.719  0.00  0.00    +0.222 HD
ENDBRANCH  32  36
ENDBRANCH  31  32
ENDBRANCH  30  31
ENDBRANCH  27  30
ENDBRANCH  24  27
ENDBRANCH  21  24
ENDBRANCH  20  21
ENDBRANCH   3  20
TORSDOF 12
ENDMDL
MODEL 8
REMARK minimizedAffinity -9.47325993
REMARK CNNscore 0.246570498
REMARK CNNaffinity 8.37263393
REMARK  Name = 643976
REMARK  14 active torsions:
REMARK  status: ('A' for Active; 'I' for Inactive)
REMARK    1  A    between atoms: P_1  and  O_5
REMARK    2  A    between atoms: P_1  and  O_8
REMARK    3  A    between atoms: P_1  and  O_9
REMARK    4  A    between atoms: O_2  and  C_15
REMARK    5  A    between atoms: O_3  and  C_16
REMARK    6  A    between atoms: O_4  and  C_18
REMARK    7  A    between atoms: O_5  and  C_22
REMARK    8  A    between atoms: N_11  and  C_17
REMARK    9  A    between atoms: C_15  and  C_16
REMARK   10  A    between atoms: C_15  and  C_17
REMARK   11  A    between atoms: C_16  and  C_18
REMARK   12  A    between atoms: C_18  and  C_22
REMARK   13  A    between atoms: C_25  and  C_29
REMARK   14  A    between atoms: C_27  and  C_30
REMARK                            x       y       z     vdW  Elec       q    Type
REMARK                         _______ _______ _______ _____ _____    ______ ____
ROOT
ATOM      1  O   UNL     1      -6.659 -16.244 -12.615  0.00  0.00    -0.265 OA
ATOM      2  O   UNL     1      -6.867 -12.592 -15.187  0.00  0.00    -0.245 OA
ATOM      3  N   UNL     1      -7.692 -11.892 -10.682  0.00  0.00    -0.320 N 
ATOM      4  N   UNL     1      -7.321 -14.719 -10.355  0.00  0.00    -0.237 NA
ATOM      5  N   UNL     1      -7.242 -12.255 -12.982  0.00  0.00    -0.173 NA
ATOM      6  N   UNL     1      -7.005 -14.409 -13.912  0.00  0.00    -0.272 N 
ATOM      7  C   UNL     1      -7.731 -12.472  -9.389  0.00  0.00    +0.069 A 
ATOM      8  C   UNL     1      -7.392 -12.706 -11.773  0.00  0.00    +0.170 A 
ATOM      9  C   UNL     1      -7.557 -13.873  -9.262  0.00  0.00    +0.089 A 
ATOM     10  C   UNL     1      -7.941 -11.744  -8.204  0.00  0.00    +0.031 A 
ATOM     11  C   UNL     1      -7.237 -14.189 -11.535  0.00  0.00    +0.171 A 
ATOM     12  C   UNL     1      -7.988 -12.348  -6.929  0.00  0.00    -0.045 A 
ATOM     13  C   UNL     1      -7.600 -14.474  -7.992  0.00  0.00    +0.033 A 
ATOM     14  C   UNL     1      -7.822 -13.734  -6.821  0.00  0.00    -0.045 A 
ATOM     15  C   UNL     1      -6.952 -15.064 -12.723  0.00  0.00    +0.282 A 
ATOM     16  C   UNL     1      -8.223 -11.472  -5.726  0.00  0.00    +0.044 C 
ATOM     17  C   UNL     1      -7.870 -14.470  -5.511  0.00  0.00    +0.044 C 
ATOM     18  C   UNL     1      -7.034 -13.055 -14.063  0.00  0.00    +0.351 A 
ATOM     19  H   UNL     1      -6.783 -14.937 -14.742  0.00  0.00    +0.174 HD
ENDROOT
BRANCH   3  20
ATOM     20  C   UNL     1      -7.784 -10.432 -10.841  0.00  0.00    +0.158 C 
BRANCH  20  21
ATOM     21  C   UNL     1      -8.836  -9.888 -11.831  0.00  0.00    +0.165 C 
BRANCH  21  22
ATOM     22  O   UNL     1      -8.899  -8.465 -11.577  0.00  0.00    -0.387 OA
ATOM     23  H   UNL     1      -9.715  -8.135 -12.013  0.00  0.00    +0.210 HD
ENDBRANCH  21  22
BRANCH  21  24
ATOM     24  C   UNL     1     -10.250 -10.512 -11.685  0.00  0.00    +0.175 C 
BRANCH  24  25
ATOM     25  O   UNL     1     -10.510 -10.971 -10.356  0.00  0.00    -0.387 OA
ATOM     26  H   UNL     1     -11.460 -10.859 -10.174  0.00  0.00    +0.210 HD
ENDBRANCH  24  25
BRANCH  24  27
ATOM     27  C   UNL     1     -10.423 -11.704 -12.660  0.00  0.00    +0.172 C 
BRANCH  27  28
ATOM     28  O   UNL     1     -10.873 -11.238 -13.940  0.00  0.00    -0.387 OA
ATOM     29  H   UNL     1     -10.809 -12.006 -14.542  0.00  0.00    +0.210 HD
ENDBRANCH  27  28
BRANCH  27  30
ATOM     30  C   UNL     1     -11.424 -12.708 -12.089  0.00  0.00    +0.206 C 
BRANCH  30  31
ATOM     31  O   UNL     1     -12.604 -12.059 -11.622  0.00  0.00    -0.284 OA
BRANCH  31  32
ATOM     32  P   UNL     1     -13.576 -13.096 -10.777  0.00  0.00    +0.472 P 
ATOM     33  O   UNL     1     -13.282 -12.466  -9.393  0.00  0.00    -0.228 OA
BRANCH  32  34
ATOM     34  O   UNL     1     -12.491 -14.305 -10.616  0.00  0.00    -0.303 OA
ATOM     35  H   UNL     1     -11.815 -13.969  -9.991  0.00  0.00    +0.222 HD
ENDBRANCH  32  34
BRANCH  32  36
ATOM     36  O   UNL     1     -13.905 -13.800 -12.323  0.00  0.00    -0.303 OA
ATOM     37  H   UNL     1     -13.135 -14.385 -12.473  0.00  0.00    +0.222 HD
ENDBRANCH  32  36
ENDBRANCH  31  32
ENDBRANCH  30  31
ENDBRANCH  27  30
ENDBRANCH  24  27
ENDBRANCH  21  24
ENDBRANCH  20  21
ENDBRANCH   3  20
TORSDOF 12
ENDMDL
MODEL 9
REMARK minimizedAffinity -8.20461369
REMARK CNNscore 0.245320991
REMARK CNNaffinity 6.04226112
REMARK  Name = 643976
REMARK  14 active torsions:
REMARK  status: ('A' for Active; 'I' for Inactive)
REMARK    1  A    between atoms: P_1  and  O_5
REMARK    2  A    between atoms: P_1  and  O_8
REMARK    3  A    between atoms: P_1  and  O_9
REMARK    4  A    between atoms: O_2  and  C_15
REMARK    5  A    between atoms: O_3  and  C_16
REMARK    6  A    between atoms: O_4  and  C_18
REMARK    7  A    between atoms: O_5  and  C_22
REMARK    8  A    between atoms: N_11  and  C_17
REMARK    9  A    between atoms: C_15  and  C_16
REMARK   10  A    between atoms: C_15  and  C_17
REMARK   11  A    between atoms: C_16  and  C_18
REMARK   12  A    between atoms: C_18  and  C_22
REMARK   13  A    between atoms: C_25  and  C_29
REMARK   14  A    between atoms: C_27  and  C_30
REMARK                            x       y       z     vdW  Elec       q    Type
REMARK                         _______ _______ _______ _____ _____    ______ ____
ROOT
ATOM      1  O   UNL     1     -24.317  -9.987 -10.454  0.00  0.00    -0.265 OA
ATOM      2  O   UNL     1     -24.855 -10.722 -14.831  0.00  0.00    -0.245 OA
ATOM      3  N   UNL     1     -22.246  -7.051 -13.744  0.00  0.00    -0.320 N 
ATOM      4  N   UNL     1     -22.767  -7.714 -11.001  0.00  0.00    -0.237 NA
ATOM      5  N   UNL     1     -23.560  -8.947 -14.291  0.00  0.00    -0.173 NA
ATOM      6  N   UNL     1     -24.754 -10.183 -12.676  0.00  0.00    -0.272 N 
ATOM      7  C   UNL     1     -21.636  -6.309 -12.702  0.00  0.00    +0.069 A 
ATOM      8  C   UNL     1     -23.035  -8.151 -13.411  0.00  0.00    +0.170 A 
ATOM      9  C   UNL     1     -21.923  -6.653 -11.358  0.00  0.00    +0.089 A 
ATOM     10  C   UNL     1     -20.755  -5.232 -12.912  0.00  0.00    +0.031 A 
ATOM     11  C   UNL     1     -23.292  -8.427 -11.949  0.00  0.00    +0.171 A 
ATOM     12  C   UNL     1     -20.170  -4.500 -11.856  0.00  0.00    -0.045 A 
ATOM     13  C   UNL     1     -21.337  -5.927 -10.306  0.00  0.00    +0.033 A 
ATOM     14  C   UNL     1     -20.470  -4.848 -10.534  0.00  0.00    -0.045 A 
ATOM     15  C   UNL     1     -24.174  -9.591 -11.599  0.00  0.00    +0.282 A 
ATOM     16  C   UNL     1     -19.243  -3.362 -12.195  0.00  0.00    +0.044 C 
ATOM     17  C   UNL     1     -19.909  -4.122  -9.342  0.00  0.00    +0.044 C 
ATOM     18  C   UNL     1     -24.400  -9.971 -13.975  0.00  0.00    +0.351 A 
ATOM     19  H   UNL     1     -25.325 -10.996 -12.506  0.00  0.00    +0.174 HD
ENDROOT
BRANCH   3  20
ATOM     20  C   UNL     1     -21.903  -6.775 -15.148  0.00  0.00    +0.158 C 
BRANCH  20  21
ATOM     21  C   UNL     1     -20.575  -7.352 -15.683  0.00  0.00    +0.165 C 
BRANCH  21  22
ATOM     22  O   UNL     1     -19.755  -6.199 -15.990  0.00  0.00    -0.387 OA
ATOM     23  H   UNL     1     -19.012  -6.521 -16.547  0.00  0.00    +0.210 HD
ENDBRANCH  21  22
BRANCH  21  24
ATOM     24  C   UNL     1     -20.716  -8.249 -16.942  0.00  0.00    +0.175 C 
BRANCH  24  25
ATOM     25  O   UNL     1     -21.601  -7.690 -17.915  0.00  0.00    -0.387 OA
ATOM     26  H   UNL     1     -21.285  -7.947 -18.800  0.00  0.00    +0.210 HD
ENDBRANCH  24  25
BRANCH  24  27
ATOM     27  C   UNL     1     -21.236  -9.656 -16.553  0.00  0.00    +0.172 C 
BRANCH  27  28
ATOM     28  O   UNL     1     -20.322 -10.290 -15.646  0.00  0.00    -0.387 OA
ATOM     29  H   UNL     1     -20.781 -11.092 -15.323  0.00  0.00    +0.210 HD
ENDBRANCH  27  28
BRANCH  27  30
ATOM     30  C   UNL     1     -21.410 -10.515 -17.805  0.00  0.00    +0.206 C 
BRANCH  30  31
ATOM     31  O   UNL     1     -20.202 -10.592 -18.557  0.00  0.00    -0.284 OA
BRANCH  31  32
ATOM     32  P   UNL     1     -20.244 -11.830 -19.653  0.00  0.00    +0.472 P 
ATOM     33  O   UNL     1     -21.389 -12.599 -18.951  0.00  0.00    -0.228 OA
BRANCH  32  34
ATOM     34  O   UNL     1     -19.047 -12.724 -18.995  0.00  0.00    -0.303 OA
ATOM     35  H   UNL     1     -19.412 -13.071 -18.154  0.00  0.00    +0.222 HD
ENDBRANCH  32  34
BRANCH  32  36
ATOM     36  O   UNL     1     -18.964 -10.969 -20.438  0.00  0.00    -0.303 OA
ATOM     37  H   UNL     1     -18.170 -11.231 -19.929  0.00  0.00    +0.222 HD
ENDBRANCH  32  36
ENDBRANCH  31  32
ENDBRANCH  30  31
ENDBRANCH  27  30
ENDBRANCH  24  27
ENDBRANCH  21  24
ENDBRANCH  20  21
ENDBRANCH   3  20
TORSDOF 12
ENDMDL
MODEL 10
REMARK minimizedAffinity -9.95779133
REMARK CNNscore 0.243352696
REMARK CNNaffinity 8.565341
REMARK  Name = 643976
REMARK  14 active torsions:
REMARK  status: ('A' for Active; 'I' for Inactive)
REMARK    1  A    between atoms: P_1  and  O_5
REMARK    2  A    between atoms: P_1  and  O_8
REMARK    3  A    between atoms: P_1  and  O_9
REMARK    4  A    between atoms: O_2  and  C_15
REMARK    5  A    between atoms: O_3  and  C_16
REMARK    6  A    between atoms: O_4  and  C_18
REMARK    7  A    between atoms: O_5  and  C_22
REMARK    8  A    between atoms: N_11  and  C_17
REMARK    9  A    between atoms: C_15  and  C_16
REMARK   10  A    between atoms: C_15  and  C_17
REMARK   11  A    between atoms: C_16  and  C_18
REMARK   12  A    between atoms: C_18  and  C_22
REMARK   13  A    between atoms: C_25  and  C_29
REMARK   14  A    between atoms: C_27  and  C_30
REMARK                            x       y       z     vdW  Elec       q    Type
REMARK                         _______ _______ _______ _____ _____    ______ ____
ROOT
ATOM      1  O   UNL     1      -9.898  -7.840 -11.151  0.00  0.00    -0.265 OA
ATOM      2  O   UNL     1      -8.188 -11.678  -9.624  0.00  0.00    -0.245 OA
ATOM      3  N   UNL     1      -8.204 -11.211 -14.233  0.00  0.00    -0.320 N 
ATOM      4  N   UNL     1      -9.456  -8.666 -13.795  0.00  0.00    -0.237 NA
ATOM      5  N   UNL     1      -8.174 -11.430 -11.872  0.00  0.00    -0.173 NA
ATOM      6  N   UNL     1      -9.239  -9.894 -10.434  0.00  0.00    -0.272 N 
ATOM      7  C   UNL     1      -8.481 -10.354 -15.328  0.00  0.00    +0.069 A 
ATOM      8  C   UNL     1      -8.477 -10.761 -12.943  0.00  0.00    +0.170 A 
ATOM      9  C   UNL     1      -9.111  -9.109 -15.080  0.00  0.00    +0.089 A 
ATOM     10  C   UNL     1      -8.175 -10.660 -16.666  0.00  0.00    +0.031 A 
ATOM     11  C   UNL     1      -9.162  -9.424 -12.784  0.00  0.00    +0.171 A 
ATOM     12  C   UNL     1      -8.474  -9.795 -17.740  0.00  0.00    -0.045 A 
ATOM     13  C   UNL     1      -9.404  -8.245 -16.149  0.00  0.00    +0.033 A 
ATOM     14  C   UNL     1      -9.103  -8.572 -17.479  0.00  0.00    -0.045 A 
ATOM     15  C   UNL     1      -9.487  -8.964 -11.392  0.00  0.00    +0.282 A 
ATOM     16  C   UNL     1      -8.105 -10.224 -19.136  0.00  0.00    +0.044 C 
ATOM     17  C   UNL     1      -9.474  -7.589 -18.555  0.00  0.00    +0.044 C 
ATOM     18  C   UNL     1      -8.515 -11.035 -10.615  0.00  0.00    +0.351 A 
ATOM     19  H   UNL     1      -9.400  -9.626  -9.475  0.00  0.00    +0.174 HD
ENDROOT
BRANCH   3  20
ATOM     20  C   UNL     1      -7.474 -12.471 -14.446  0.00  0.00    +0.158 C 
BRANCH  20  21
ATOM     21  C   UNL     1      -7.734 -13.622 -13.451  0.00  0.00    +0.165 C 
BRANCH  21  22
ATOM     22  O   UNL     1      -6.678 -14.581 -13.692  0.00  0.00    -0.387 OA
ATOM     23  H   UNL     1      -6.948 -15.417 -13.252  0.00  0.00    +0.210 HD
ENDBRANCH  21  22
BRANCH  21  24
ATOM     24  C   UNL     1      -9.117 -14.312 -13.601  0.00  0.00    +0.175 C 
BRANCH  24  25
ATOM     25  O   UNL     1     -10.088 -13.461 -14.216  0.00  0.00    -0.387 OA
ATOM     26  H   UNL     1     -10.694 -14.016 -14.738  0.00  0.00    +0.210 HD
ENDBRANCH  24  25
BRANCH  24  27
ATOM     27  C   UNL     1      -9.656 -14.757 -12.218  0.00  0.00    +0.172 C 
BRANCH  27  28
ATOM     28  O   UNL     1     -10.259 -16.056 -12.315  0.00  0.00    -0.387 OA
ATOM     29  H   UNL     1     -10.432 -16.339 -11.395  0.00  0.00    +0.210 HD
ENDBRANCH  27  28
BRANCH  27  30
ATOM     30  C   UNL     1     -10.679 -13.745 -11.704  0.00  0.00    +0.206 C 
BRANCH  30  31
ATOM     31  O   UNL     1     -12.014 -14.174 -11.961  0.00  0.00    -0.284 OA
BRANCH  31  32
ATOM     32  P   UNL     1     -13.125 -13.108 -11.359  0.00  0.00    +0.472 P 
ATOM     33  O   UNL     1     -12.139 -11.917 -11.267  0.00  0.00    -0.228 OA
BRANCH  32  34
ATOM     34  O   UNL     1     -12.983 -13.532  -9.789  0.00  0.00    -0.303 OA
ATOM     35  H   UNL     1     -12.098 -13.214  -9.511  0.00  0.00    +0.222 HD
ENDBRANCH  32  34
BRANCH  32  36
ATOM     36  O   UNL     1     -14.226 -14.438 -11.463  0.00  0.00    -0.303 OA
ATOM     37  H   UNL     1     -14.038 -14.951 -10.651  0.00  0.00    +0.222 HD
ENDBRANCH  32  36
ENDBRANCH  31  32
ENDBRANCH  30  31
ENDBRANCH  27  30
ENDBRANCH  24  27
ENDBRANCH  21  24
ENDBRANCH  20  21
ENDBRANCH   3  20
TORSDOF 12
ENDMDL
